**********************************************************
* FEMM4.2 based lossy inductor model
* Date: Thu Aug 21 16:53:05 2025
* Author: MP
* Frequency range: 10000.0 - 100000.0 Hz
* Position range: 0.0 - 10.0 mm
**********************************************************

.SUBCKT LOSSY_INDUCTOR LP LN PARAMS: FREQ=10000.0 POS=0.0

.PARAM RES=table(FREQ,
+ 10000.0, table(POS, 0.0, 1.146591396932427, 1.0, 0.8985189356584915, 2.0, 0.7591411343923944, 3.0, 0.6750571809493419, 4.0, 0.6220844888272845, 5.0, 0.5875423549192411, 6.0, 0.5647629383722214, 7.0, 0.5492141626713161, 8.0, 0.5386333101635244, 9.0, 0.5311753217165286, 10.0, 0.5258732639664202),
+ 55000.0, table(POS, 0.0, 5.324658856350373, 1.0, 4.164050455101417, 2.0, 3.728184548741697, 3.0, 3.538516184527822, 4.0, 3.447895010080667, 5.0, 3.399624477847819, 6.0, 3.373888714513109, 7.0, 3.357413939860856, 8.0, 3.350118300197746, 9.0, 3.34421211080276, 10.0, 3.341678475873829),
+ 100000.0, table(POS, 0.0, 11.41464847388815, 1.0, 8.836849131797678, 2.0, 8.113071551722266, 3.0, 7.906379847678527, 4.0, 7.864604498905562, 5.0, 7.870092678277265, 6.0, 7.891905273017832, 7.0, 7.909690541762283, 8.0, 7.933529801226162, 9.0, 7.948083410660685, 10.0, 7.963331546507353))

.PARAM IND=table(FREQ,
+ 10000.0, table(POS, 0.0, 7.818058367359051e-05, 1.0, 9.548515039225687e-05, 2.0, 0.00010608628296357083, 3.0, 0.00011291845198556453, 4.0, 0.00011737922646857729, 5.0, 0.00012021988211027563, 6.0, 0.00012212466284891333, 7.0, 0.00012340971961782225, 8.0, 0.00012440207631922993, 9.0, 0.00012487651181422848, 10.0, 0.00012531162447572137),
+ 55000.0, table(POS, 0.0, 6.837515266022159e-05, 1.0, 8.842259464862144e-05, 2.0, 0.00010054888987004839, 3.0, 0.00010827328471210898, 4.0, 0.00011328215323172005, 5.0, 0.00011647333167004163, 6.0, 0.00011860494684392643, 7.0, 0.00012004294889826071, 8.0, 0.00012113742364026546, 9.0, 0.00012168356378476924, 10.0, 0.00012216862262191472),
+ 100000.0, table(POS, 0.0, 6.202112952889554e-05, 1.0, 8.312704350388184e-05, 2.0, 9.563664153540476e-05, 3.0, 0.00010349454382845252, 4.0, 0.00010854589484200079, 5.0, 0.00011174910228774384, 6.0, 0.00011387954879901431, 7.0, 0.00011531481828532681, 8.0, 0.00011640154074717672, 9.0, 0.00011694368424068033, 10.0, 0.0001174233405971883))

R1 LP 2 {RES}
L1 2 LN {IND}
.ENDS LOSSY_INDUCTOR
